Circuit: * C:\Users\vivek\Desktop\Projects\AD4630-Wideband-Digital-LNA\Software\Simulation\Front End.asc

Early termination of direct N-R iteration.
Direct Newton iteration failed to find .op point.  (Use ".option noopiter" to skip.)
Starting Gmin stepping
Gmin = 10
Gmin = 1.07374
Gmin = 0.115292
Gmin = 0.0123794
Gmin = 0.00132923
Gmin = 0.000142725
Gmin = 1.5325e-005
Gmin = 1.6455e-006
Gmin = 1.76685e-007
vernier = 0.5
vernier = 0.666667
Gmin = 6.17442e-008
vernier = 0.333333
vernier = 0.166667
vernier = 0.222222
vernier = 0.111111
Gmin = 5.03445e-008
vernier = 0.148148
vernier = 0.074074
Gmin = 4.15479e-008
vernier = 0.0987653
vernier = 0.0493827
vernier = 0.0246913
vernier = 0.0123457
Gmin = 3.95602e-008
vernier = 0.0164609
vernier = 0.0219478
Gmin = 3.7852e-008
vernier = 0.0292638
vernier = 0.0390184
Gmin = 3.5298e-008
vernier = 0.0520245
Gmin = 3.15217e-008
vernier = 0.0693659
vernier = 0.034683
vernier = 0.046244
Gmin = 2.91251e-008
vernier = 0.0616586
vernier = 0.0308293
Gmin = 2.6975e-008
vernier = 0.0411057
vernier = 0.0548076
vernier = 0.0274038
Gmin = 2.50046e-008
vernier = 0.0365384
Gmin = 2.30391e-008
vernier = 0.0487178
vernier = 0.0243589
vernier = 0.0121795
vernier = 0.00608973
vernier = 0.00304487
vernier = 0.00152243
vernier = 0.000761216
vernier = 0.000570912
vernier = 0.000428184
Gmin = 0
Gmin = 0
Gmin stepping failed

Starting source stepping with srcstepmethod=0
Source Step = 3.0303%
Source Step = 33.3333%
Source Step = 51.5625%
vernier = 0.00390625
Source Step = 51.5418%
Source Step = 51.5714%
Source Step = 51.601%
Source Step = 51.6306%
Source Step = 51.6602%
vernier = 0.00146484
Source Step = 51.6986%
Source Step = 51.743%
Source Step = 51.7874%
Source Step = 51.8318%
Source Step = 51.8762%
vernier = 0.00219727
Source Step = 51.9317%
Source Step = 51.9983%
Source Step = 52.0648%
Source Step = 52.1314%
Source Step = 52.198%
vernier = 0.0032959
Source Step = 52.2779%
Source Step = 52.3778%
Source Step = 52.4777%
Source Step = 52.5775%
Source Step = 52.6774%
vernier = 0.00494385
Source Step = 52.7923%
Source Step = 52.9421%
Source Step = 53.0919%
Source Step = 53.2417%
Source Step = 53.3915%
vernier = 0.00741577
Source Step = 53.5563%
Source Step = 53.781%
Source Step = 54.0058%
Source Step = 54.2305%
Source Step = 54.4552%
vernier = 0.0111237
Source Step = 54.6912%
Source Step = 55.0282%
Source Step = 55.3653%
Source Step = 55.7024%
Source Step = 56.0395%
Source Step = 56.3766%
vernier = 0.0166855
Source Step = 56.8822%
Source Step = 57.3878%
Source Step = 57.8934%
Source Step = 58.399%
Source Step = 58.9047%
vernier = 0.0250282
Source Step = 59.6378%
Source Step = 60.3962%
Source Step = 61.1547%
Source Step = 61.9131%
Source Step = 62.6715%
vernier = 0.0375423
Source Step = 63.7333%
Source Step = 64.871%
Source Step = 66.0086%
Source Step = 67.1463%
Source Step = 68.2839%
vernier = 0.0563135
Source Step = 69.8197%
Source Step = 71.5262%
Source Step = 73.2327%
Source Step = 74.9392%
Source Step = 76.6456%
vernier = 0.0844703
Source Step = 78.864%
Source Step = 81.4237%
Source Step = 83.9835%
Source Step = 86.5432%
Source Step = 89.1029%
vernier = 0.126705
Source Step = 91.6306%
vernier = 0.00791909
Source Step = 91.5886%
Source Step = 91.6486%
Source Step = 91.7086%
Source Step = 91.7686%
Source Step = 91.8285%
vernier = 0.00296966
Source Step = 91.9065%
Source Step = 91.9965%
Source Step = 92.0865%
Source Step = 92.1765%
Source Step = 92.2665%
vernier = 0.00445449
Source Step = 92.379%
Source Step = 92.514%
Source Step = 92.649%
Source Step = 92.7839%
Source Step = 92.9189%
vernier = 0.00668173
Source Step = 93.0809%
Source Step = 93.2834%
Source Step = 93.4859%
Source Step = 93.6883%
Source Step = 93.8908%
vernier = 0.0100226
Source Step = 94.1237%
Source Step = 94.4274%
Source Step = 94.7311%
Source Step = 95.0348%
Source Step = 95.3385%
vernier = 0.0150339
Source Step = 95.6726%
Source Step = 96.1282%
Source Step = 96.5837%
Source Step = 97.0393%
Source Step = 97.4949%
vernier = 0.0225508
Source Step = 97.9732%
Source Step = 98.6566%
Source Step = 99.34%
Source Step = 100%
Source stepping succeeded in finding the operating point.


Date: Wed Jan 25 22:28:22 2023
Total elapsed time: 0.203 seconds.

tnom = 27
temp = 27
method = trap
totiter = 8011
traniter = 0
tranpoints = 0
accept = 0
rejected = 0
matrix size = 60
fillins = 148
solver = Normal
Matrix Compiler1:     632 opcodes
Matrix Compiler2: off  [0.4]/0.7/0.5

